* mmbt3906 - pnp general purpose amplifier
*
.model mmbt3906 pnp(
+ Is=6.84896e-14
+ Bf=135.6
+ Nf=1.0
+ Br=0.304
+ Nr=1.0
+ Ise=5.524807e-13
+ Ne=1.5
+ Isc=1.71764e-10
+ Nc=1.5
+ Vaf=18.7
+ Var=200
+ Ikf=0.0882
+ Ikr=0.229087
+ Rb=1.05
+ Rbm=0.011
+ Irb=1.51189e-3
+ Re=0.022
+ Rc=1.57
+ Cje=8.032025e-12
+ Vje=0.7118251
+ Mje=0.3042244
+ Fc=0.5
+ Cjc=9.505229e-12
+ Vjc=0.8414405
+ Mjc=0.5
+ Tf=3.193e-10
+ Itf=0.4
+ Vtf=4.0
+ Xtf=6
+ Tr=3.342e-8
+ Xtb=1.58
+ Eg=0.78
+ Xti=3)
*
