* mmbt3904 - npn general purpose amplifier
*
.model mmbt3904 npn(
+ Is=5.88844e-15
+ Bf=122.1
+ Nf=1
+ Br=7.3
+ Nr=1
+ Ise=1.0e-14
+ Ne=1.5
+ Isc=1.31826e-11
+ Nc=1.5
+ Vaf=74.03
+ Var=20
+ Ikf=0.069453
+ Ikr=0.017378
+ Rb=12.5
+ Rbm=10
+ Irb=2.51189e-5
+ Re=0.18
+ Rc=1.3
+ Cje=7.879424e-12
+ Vje=0.6464066
+ Mje=0.2596434
+ Fc=0.5
+ Cjc=4.291838e-12
+ Vjc=0.5
+ Mjc=0.1964945
+ Tf=3.012e-10
+ Xtf=2.0
+ Itf=0.4
+ Vtf=4.0
+ Tr=2.395e-7
+ Xtb=1.5
+ Eg=1.17
+ Xti=3)
*
