* mmz2012r300a spice model
*
.subckt mmz2012r300a 1 2
*
C1 1 11 9.00e-13
L1 1 11 2.50e-07
R1 1 11 3.60e+01
R2 2 11 1.00e-02
*
.ends mmz2012r300a
*
