* mur860 high current diode
*
.model MUR860 d(
+ Is=1.43541e-07
+ Rs=0.0590751
+ N=2
+ Eg=1.3
+ Xti=4
+ Bv=600
+ Ibv=0.00001
+ Cjo=3.40446e-10
+ Vj=1.5
+ M=0.457394
+ Fc=0.5
+ Tt=9.98853e-08
+ Kf=0
+ Af=1)
*
